*/mpich/*				MPICH
*/lmp_*					LAMMPS
*/lammps*				LAMMPS
*/fluent/*				Ansys
*/ansys_inc/*				Ansys
/cluster/software/Fluids/*		Ansys
*/dacapo*				Dacapo
*/dalton.x				Dalton
*/lsdalton.x				Dalton
*/mg??.exe				MGLET
*/mg??-*.exe				MGLET
*/rec_stat.exe				MGLET
*/mglet					MGLET
*/nolrz.exe				MGLET
*/GLPKS					GLPK
*Foam					OpenFOAM
*/OpenFOAM/*				OpenFOAM
*/vasp*					Vasp
*/std					Vasp
*/cdo					CDO
*/s3d_f90.x				S3D
*/s3d.x					S3D
*/mitgcmuv*				MITgcm
*/MITgcm/*				MITgcm
*/cam					CAM
*/oasis.x				OASIS
*/noresm/*				NorESM
*/noresm2/*				NorESM
*/micom					NorESM
/cluster/work/users/yfa008/exeroot/*	NorESM
/cluster/work/users/earnest/stercp_exp/*	NorESM
*/ccsm.exe				CESM
*/cesm.exe				CESM
*/cp2k*					CP2K
*/TISMOL.exe				CP2K
*/gromacs/*				Gromacs
*/Gromacs/*				Gromacs
*/iclams-*				ICLAMS
*/DLPOLY-avx-mpt.X			DL_POLY
*/IOR					IOR
*/metarates				Metarates
*/Reef3d_24_02_2013_intel-mpt2		Reef3d
*/Reef3d				Reef3d
*/reef3d				Reef3d
*/REEF3D*				Reef3d
*/lsdyna*				LS-DYNA
*/ls-dyna_*				LS-DYNA
*/ls971*				LS-DYNA
*/mppdyna				LS-DYNA
*/euterpe				EUTERPE
*/wrf.exe				WRF
*/WRFV3/*				WRF
*/WRFV3.4/*				WRF
*/WRF_HORDB/*				WRF
*/WRF/*					WRF
*/wrf/*					WRF
*/real.exe				WRF
*/wrf_*.exe				WRF
*/wrfwork/*				WRF
*/WRF_install/*				WRF
*/eonclientmpi				EON
*/Code_Saturne/*			Code_Saturne
*/code_saturne/*			Code_Saturne
*/cs_solver				Code_Saturne
*/R					R
/nird/home/u1/mbeauchamp/R/*		R
*/hpctoolkit/*				HPCToolkit
*/hdf5-*				HDF5
*/MATLAB/*				Matlab
*/matlab/*				Matlab
*/motionsegBM				Matlab
*/ptatin_driver_nonlinear_ts*		pTatin3d
*/ptau3d.*				TAU
*/tau2plt				TAU
*/centaur2tau				TAU
*/gather				TAU
*/abinit*				ABINIT
*/photo_tr_damp*.x			Bifrost
*/hion-diff.x				Bifrost
*/photo_tr.x				Bifrost
*/helium.x				Bifrost
*/Bifrost/*				Bifrost
*/bifrost/*				Bifrost
*/hion.x				Bifrost
/cluster/work/users/viggoh/*		Bifrost
*/lare2d_*				Bifrost
*/multi3d/*				Bifrost
*/nek5000				Nek5000
*/issm_uci/*				ISSM
*/issm.exe				ISSM
*/CrystalAnalysis			CATOOL
*/kART/*				kART
*/kart/*				kART
*/lulesh				LULESH
*/C3PO/*				CPPPO
*/DiveMESH				DiveMESH
*/Divemesh				DiveMESH
*/FastScape*				FastScape
*/costmatrices				Benchmark
*/SPEC2006_v12/*			Benchmark
*/osu-micro-benchmarks-5.1/*		Benchmark
*/IMB-MPI1				Benchmark
*/benchmarks/*				Benchmark
*/miranda_io.*				Benchmark
*/pencil/*				Pencil Code
*/pencil-code/*				Pencil Code
*/run.x					Pencil Code
*/ReSpect/*				ReSpect
python					Script
*/python				Script
*/python2.6				Script
*/python2.7				Script
*/python3.6				Script
perl					Script
*/perl					Script
sh					Script
*/sh					Script
bash					Script
*/bash					Script
ksh					Script
*/ksh					Script
*/ksh93					Script
awk					Script
*/awk					Script
*/tcsh					Script
*/CitcomSRegional			CitcomS
*/nemd3					NEMD
/cluster/software/easybuild/software/NWChem/*	NWChem
/cluster/software/NWChem/*		NWChem
*/nwchem				NWChem
*/nicole				NICOLE
*/echam5				ECHAM
*/echam6_*				ECHAM
*/echA0?				ECHAM
*/mpi-om				ECHAM
*/mpiom_*				ECHAM
*/oasis3_*				ECHAM
*/after					ECHAM
/cluster/work/users/gho075/Oases/*	Oases
/cluster/work/users/jorgeem/kshell*	Kshell
*/kshell.exe				Kshell
/cluster/software/easybuild/software/netCDF/*	netCDF
/cluster/software/netCDF/*		netCDF
*/MorrowLowke2d*			OpenStreamer
*/MorrowLowke3d*			OpenStreamer
/bin/*					System
/usr/bin/*				System
/usr/sbin/*				System
/usr/lib64/*				System
/opt/*					System
/usr/pbs/*				System
*/htop					System
/cluster/software/binutils/*		System
*/2dcyl					Research
*/2dcyl_v				Research
*/cyl_matrix				Research
*/bridge_test_fsi.exe			Research
*/fiber					Research
*/TDSE_PROP_MPI*			Research
*/TDDE_PROP_MPI*			Research
*/TIDE_Cpls_mkl*			Research
*/BY00.exe				Research
/nird/home/u1/lihao/*			Research
/cluster/work/users/lihao/*		Research
*/a.out					Research
*/amain.canny				Research
*/test1.exe				Research
*/namd2					NAMD
*/toolworks/*				TotalView
*/hycom_cice				HYCOM
*/hyc2proj				HYCOM
*/hycom					HYCOM
*/hycave				HYCOM
*/fixhycom				HYCOM
*/TOPAZ/*				Topaz
/cluster/work/users/mbeauchamp/*	Forecast
/nird/home/u1/mbeauchamp/ktin/*		Forecast
/cluster/work/users/mde021/STERCP/*	Forecast
*/oceanM				Forecast
/cluster/software/NCO/*			NCO
*/GEANT4/*				Geant4
/cluster/work/users/dsarria/G4_projects/*	Geant4
*/Qdyn5p				Q
/cluster/software/GROMACS/*		Gromacs
*/xspecfem3D				SPECFEM3D
*/xcombine_vol_data			SPECFEM3D
*/Pcrystal				Crystal
*/MPPcrystal				Crystal
*/ecearth/*				EC-Earth
*/IGA_*.exe				Isogeometric Analysis
/cluster/software/Advisor/*		Advisor
/cluster/software/WPS/*			WPS
/cluster/software/site-specific/wps/*	WPS
*/WPS/*					WPS
*/WPS_install/*				WPS
*/wpswork/*				WPS
*/sw4					SW4
*/Hologram/*				Hologram
*/main_dyn				Hologram
/cluster/software/NCL/*			NCL
/cluster/software/icc/*			Intel
/cluster/software/ParaView/*		ParaView
*/rockseis-suite/*			Rockseis
*/mrchem/*				MRChem
*/mrchem.x				MRChem
*/ramses3d				RAMSES
*/palm					PALM
*/fvcom.bin				FVCOM
*/cosmo_iso/*				COSMOiso
*/Underworld				Underworld
*/inho					InteRPTartS
*/Ecearth*				EC-Earth
*/ecearth*				EC-Earth
*/EnKF					EnKF
*/EnKF_*				EnKF
/cluster/work/users/marskar/*		Chombo
/cluster/work/users/hanskrme/*		Chombo
*/main2d.Linux.64.mpiicpc.ifort.OPT.MPI.ex	Chombo
*/main3d.Linux.64.mpiicpc.ifort.OPT.MPI.ex	Chombo
*/gasoline				Gasoline
*/fluidity				Fluidity
*/fluidity*				Fluidity
*/hrldas.exe				HRLDAS
*/VisIt/*				VisIt
*/Rosetta/*				Rosetta
*/madagascar-*				Madagascar
*/ESMF/*				ESMF
/cluster/software/Gaussian/*		Gaussian
*/QuantumEspresso/*			QuantumEspresso
